/*--------------------------------*- C++ -*----------------------------------*\
| =========                 |                                                 |
| \\      /  F ield         | OpenFOAM: The Open Source CFD Toolbox           |
|  \\    /   O peration     | Version:  2.3.1                                 |
|   \\  /    A nd           | Web:      www.OpenFOAM.org                      |
|    \\/     M anipulation  |                                                 |
\*---------------------------------------------------------------------------*/
FoamFile
{
    version     2.0;
    format      ascii;
    class       dictionary;
    object      fvSolution;
}
// * * * * * * * * * * * * * * * * * * * * * * * * * * * * * * * * * * * * * //

solvers
{
    pcorr
    {
       // solver           GAMG;
        solver            PCG;
        preconditioner    DIC;
        tolerance        0.02;
        relTol           0;
       // smoother         DICGaussSeidel;
        smoother         GaussSeidel;
        nPreSweeps       0;
        nPostSweeps      2;
        cacheAgglomeration true;
        agglomerator     faceAreaPair;
        nCellsInCoarsestLevel 500;
        mergeLevels      1;
    }

    p
    {
        $pcorr
        tolerance        1e-5;
        relTol           0.01;
    }

    pFinal
    {
        $p;
        tolerance        1e-7;
        relTol           0;
    }

    "(U|k|omega)"
    {
        solver          smoothSolver;
        smoother        symGaussSeidel;
        tolerance       1e-06;
        relTol          0;
        minIter         10;
    }

    "(U|k|omega)Final"
    {
        $U;
        tolerance       1e-06;
        relTol          0;
        minIter         10;
    }
}

PIMPLE
{
    nOuterCorrectors    30;
    nCorrectors         1;
    nNonOrthogonalCorrectors 0;
    pRefCell        0;
    pRefValue       0;

    residualControl
    {
        U
        {
                tolerance  1e-5;
                relTol      0;
        }
        p
        {
                tolerance  5e-4;
                relTol      0;
        }
     }

}

SIMPLE
{
    nNonOrthogonalCorrectors 0;
    pRefCell        0;
    pRefValue       0;

    residualControl
    {
        p               1e-5;
        U               1e-5;
        nuTilda         1e-5;
    }
}


relaxationFactors
{
    fields
    {
        p               0.3;
    }
    equations
    {
        "(U|k|omega)"   0.7;
        "(U|k|omega)Final" 1.0;
    }
}

cache
{
    grad(U);
}

// ************************************************************************* //
